[Format]      =  4.0
[Frequency]   =  0
[Precision]   =  1e-008
[MinAngle]    =  30
[DoSmartMesh] =  1
[Depth]       =  3000
[LengthUnits] =  millimeters
[ProblemType] =  planar
[Coordinates] =  cartesian
[ACSolver]    =  0
[PrevType]    =  0
[PrevSoln]    =  ""
[Comment]     =  "Add comments here."
[PointProps]   = 0
[BdryProps]   = 1
  <BeginBdry>
    <BdryName> = "Randbedingung"
    <BdryType> = 0
    <A_0> = 0
    <A_1> = 0
    <A_2> = 0
    <Phi> = 0
    <c0> = 0
    <c0i> = 0
    <c1> = 0
    <c1i> = 0
    <Mu_ssd> = 0
    <Sigma_ssd> = 0
    <innerangle> = 0
    <outerangle> = 0
  <EndBdry>
[BlockProps]  = 3
  <BeginBlock>
    <BlockName> = "Eisenjoch"
    <Mu_x> = 1000
    <Mu_y> = 1000
    <H_c> = 0
    <H_cAngle> = 0
    <J_re> = 0
    <J_im> = 0
    <Sigma> = 0
    <d_lam> = 0
    <Phi_h> = 0
    <Phi_hx> = 0
    <Phi_hy> = 0
    <LamType> = 0
    <LamFill> = 1
    <NStrands> = 0
    <WireD> = 0
    <BHPoints> = 33
      0	0
      0.01	9.9997047999999999
      0.02	19.999410000000001
      0.035000000000000003	29.999113999999999
      0.050000000000000003	39.998818999999997
      0.070000000000000007	49.998524000000003
      0.107	59.998229000000002
      0.14000000000000001	69.997933000000003
      0.20000000000000001	79.997637999999995
      0.33000000000000002	99.997048000000007
      1.02	199.9941
      1.25	299.99113999999997
      1.3500000000000001	399.98818999999997
      1.3999999999999999	499.98523999999998
      1.4299999999999999	599.98229000000003
      1.45	699.97933
      1.47	799.97637999999995
      1.48	899.97343000000001
      1.4950000000000001	999.97047999999995
      1.5800000000000001	1999.941
      1.6399999999999999	2999.9114
      1.675	3999.8818999999999
      1.71	4999.8523999999998
      1.73	5999.8229000000001
      1.76	6999.7933000000003
      1.78	7999.7637999999997
      1.7949999999999999	8999.7343000000001
      1.8100000000000001	9999.7047999999995
      1.95	19999.41
      2.0299999999999998	29999.114000000001
      2.0699999999999998	39788.735000000001
      2.1800000000000002	79577.468999999997
      2.25	111408.46000000001
  <EndBlock>
  <BeginBlock>
    <BlockName> = "Kupfer"
    <Mu_x> = 0.99999360000000004
    <Mu_y> = 0.99999360000000004
    <H_c> = 0
    <H_cAngle> = 0
    <J_re> = 0
    <J_im> = 0
    <Sigma> = 0
    <d_lam> = 0
    <Phi_h> = 0
    <Phi_hx> = 0
    <Phi_hy> = 0
    <LamType> = 0
    <LamFill> = 1
    <NStrands> = 0
    <WireD> = 0
    <BHPoints> = 0
  <EndBlock>
  <BeginBlock>
    <BlockName> = "Vakuum"
    <Mu_x> = 1
    <Mu_y> = 1
    <H_c> = 0
    <H_cAngle> = 0
    <J_re> = 0
    <J_im> = 0
    <Sigma> = 0
    <d_lam> = 0
    <Phi_h> = 0
    <Phi_hx> = 0
    <Phi_hy> = 0
    <LamType> = 0
    <LamFill> = 1
    <NStrands> = 0
    <WireD> = 0
    <BHPoints> = 0
  <EndBlock>
[CircuitProps]  = 1
  <BeginCircuit>
    <CircuitName> = "Stromanregung"
    <TotalAmps_re> = 15000
    <TotalAmps_im> = 0
    <CircuitType> = 1
  <EndCircuit>
[NumPoints] = 46
0	124.5	0	0
113	124.5	0	0
165	72.5	0	0
165	0	0	0
82.5	0	0	0
82.5	35	0	0
72.859999999999999	35	0	0
69.859999999999999	33	0	0
0	33	0	0
0	0	0	0
81	42	0	0
64.359999999999999	42	0	0
81	39	0	0
64.359999999999999	39	0	0
76.359999999999999	1.1699999999999999	0	0
76.359999999999999	7.1699999999999999	0	0
76.359999999999999	1.6699999999999999	0	0
76.359999999999999	6.6699999999999999	0	0
68	1.1699999999999999	0	0
68	7.1699999999999999	0	0
68	1.6699999999999999	0	0
68	6.6699999999999999	0	0
76.359999999999999	9.3499999999999996	0	0
76.359999999999999	15.35	0	0
76.359999999999999	9.8499999999999996	0	0
76.359999999999999	14.85	0	0
68	9.3499999999999996	0	0
68	15.35	0	0
68	9.8499999999999996	0	0
68	14.85	0	0
76.359999999999999	17.530000000000001	0	0
76.359999999999999	23.530000000000001	0	0
76.359999999999999	18.030000000000001	0	0
76.359999999999999	23.030000000000001	0	0
68	17.530000000000001	0	0
68	23.530000000000001	0	0
68	18.030000000000001	0	0
68	23.030000000000001	0	0
76.359999999999999	25.710000000000001	0	0
76.359999999999999	31.710000000000001	0	0
76.359999999999999	26.210000000000001	0	0
76.359999999999999	31.210000000000001	0	0
68	25.710000000000001	0	0
68	31.710000000000001	0	0
68	26.210000000000001	0	0
68	31.210000000000001	0	0
[NumSegments] = 13
0	1	-1	1	0	0
1	2	-1	1	0	0
2	3	-1	1	0	0
3	4	-1	0	0	0
4	5	-1	0	0	0
5	6	-1	0	0	0
6	7	-1	0	0	0
7	8	-1	0	0	0
0	8	-1	1	0	0
8	9	-1	1	0	0
9	4	-1	0	0	0
10	11	-1	0	0	0
12	13	-1	0	0	0
[NumArcSegments] = 34
11	13	180	10	0	0	0	1
12	10	180	10	0	0	0	1
14	15	180	10	0	0	0	1
15	14	180	10	0	0	0	1
16	17	180	10	0	0	0	1
17	16	180	10	0	0	0	1
18	19	180	10	0	0	0	1
19	18	180	10	0	0	0	1
20	21	180	10	0	0	0	1
21	20	180	10	0	0	0	1
22	23	180	10	0	0	0	1
23	22	180	10	0	0	0	1
24	25	180	10	0	0	0	1
25	24	180	10	0	0	0	1
26	27	180	10	0	0	0	1
27	26	180	10	0	0	0	1
28	29	180	10	0	0	0	1
29	28	180	10	0	0	0	1
30	31	180	10	0	0	0	1
31	30	180	10	0	0	0	1
32	33	180	10	0	0	0	1
33	32	180	10	0	0	0	1
34	35	180	10	0	0	0	1
35	34	180	10	0	0	0	1
36	37	180	10	0	0	0	1
37	36	180	10	0	0	0	1
38	39	180	10	0	0	0	1
39	38	180	10	0	0	0	1
40	41	180	10	0	0	0	1
41	40	180	10	0	0	0	1
42	43	180	10	0	0	0	1
43	42	180	10	0	0	0	1
44	45	180	10	0	0	0	1
45	44	180	10	0	0	0	1
[NumHoles] = 0
[NumBlockLabels] = 19
82.5	120	1	-1	0	0	0	1	0
72.680000000000007	40.5	3	-1	0	0	0	1	0
42	16	3	-1	0	0	0	1	0
79.109999999999999	4.1699999999999999	2	-1	1	0	0	1	0
70.75	4.1699999999999999	2	-1	1	0	0	1	0
76.359999999999999	4.1699999999999999	3	-1	0	0	0	1	0
68	4.1699999999999999	3	-1	0	0	0	1	0
79.109999999999999	12.35	2	-1	1	0	0	1	0
70.75	12.35	2	-1	1	0	0	1	0
76.359999999999999	12.35	3	-1	0	0	0	1	0
68	12.35	3	-1	0	0	0	1	0
79.109999999999999	20.530000000000001	2	-1	1	0	0	1	0
70.75	20.530000000000001	2	-1	1	0	0	1	0
76.359999999999999	20.530000000000001	3	-1	0	0	0	1	0
68	20.530000000000001	3	-1	0	0	0	1	0
79.109999999999999	28.710000000000001	2	-1	1	0	0	1	0
70.75	28.710000000000001	2	-1	1	0	0	1	0
76.359999999999999	28.710000000000001	3	-1	0	0	0	1	0
68	28.710000000000001	3	-1	0	0	0	1	0
