[Format]      =  4.0
[Frequency]   =  0
[Precision]   =  1e-008
[MinAngle]    =  30
[DoSmartMesh] =  1
[Depth]       =  3000
[LengthUnits] =  millimeters
[ProblemType] =  planar
[Coordinates] =  cartesian
[ACSolver]    =  0
[PrevType]    =  0
[PrevSoln]    =  ""
[Comment]     =  "Add comments here."
[PointProps]   = 1
  <BeginPoint>
    <PointName> = "FUCK YOU"
    <I_re> = 6045.7600000000002
    <I_im> = 0
    <A_re> = 0
    <A_im> = 0
  <EndPoint>
[BdryProps]   = 3
  <BeginBdry>
    <BdryName> = "rand links"
    <BdryType> = 0
    <A_0> = 0
    <A_1> = 0
    <A_2> = 1
    <Phi> = 90
    <c0> = 0
    <c0i> = 0
    <c1> = 0
    <c1i> = 0
    <Mu_ssd> = 0
    <Sigma_ssd> = 0
    <innerangle> = 0
    <outerangle> = 0
  <EndBdry>
  <BeginBdry>
    <BdryName> = "rand unten"
    <BdryType> = 0
    <A_0> = 0
    <A_1> = 1
    <A_2> = 0
    <Phi> = 0
    <c0> = 0
    <c0i> = 0
    <c1> = 0
    <c1i> = 0
    <Mu_ssd> = 0
    <Sigma_ssd> = 0
    <innerangle> = 0
    <outerangle> = 0
  <EndBdry>
  <BeginBdry>
    <BdryName> = "oben rechts"
    <BdryType> = 0
    <A_0> = 0
    <A_1> = 1
    <A_2> = 1
    <Phi> = 45
    <c0> = 0
    <c0i> = 0
    <c1> = 0
    <c1i> = 0
    <Mu_ssd> = 0
    <Sigma_ssd> = 0
    <innerangle> = 0
    <outerangle> = 0
  <EndBdry>
[BlockProps]  = 3
  <BeginBlock>
    <BlockName> = "Eisenjoch"
    <Mu_x> = 1000
    <Mu_y> = 1000
    <H_c> = 0
    <H_cAngle> = 0
    <J_re> = 0
    <J_im> = 0
    <Sigma> = 0
    <d_lam> = 0
    <Phi_h> = 0
    <Phi_hx> = 0
    <Phi_hy> = 0
    <LamType> = 0
    <LamFill> = 1
    <NStrands> = 0
    <WireD> = 0
    <BHPoints> = 0
  <EndBlock>
  <BeginBlock>
    <BlockName> = "Kupfer"
    <Mu_x> = 0.99999360000000004
    <Mu_y> = 0.99999360000000004
    <H_c> = 0
    <H_cAngle> = 0
    <J_re> = 0
    <J_im> = 0
    <Sigma> = 0
    <d_lam> = 0
    <Phi_h> = 0
    <Phi_hx> = 0
    <Phi_hy> = 0
    <LamType> = 0
    <LamFill> = 1
    <NStrands> = 0
    <WireD> = 0
    <BHPoints> = 0
  <EndBlock>
  <BeginBlock>
    <BlockName> = "Vakuum"
    <Mu_x> = 1
    <Mu_y> = 1
    <H_c> = 0
    <H_cAngle> = 0
    <J_re> = 0
    <J_im> = 0
    <Sigma> = 0
    <d_lam> = 0
    <Phi_h> = 0
    <Phi_hx> = 0
    <Phi_hy> = 0
    <LamType> = 0
    <LamFill> = 1
    <NStrands> = 0
    <WireD> = 0
    <BHPoints> = 0
  <EndBlock>
[CircuitProps]  = 1
  <BeginCircuit>
    <CircuitName> = "Stromanregung"
    <TotalAmps_re> = 6045.7600000000002
    <TotalAmps_im> = 0
    <CircuitType> = 0
  <EndCircuit>
[NumPoints] = 46
0	124.5	0	0
113	124.5	0	0
165	72.5	0	0
165	0	0	0
82.5	0	0	0
82.5	35	0	0
72.859999999999999	35	0	0
69.859999999999999	33	0	0
0	33	0	0
0	0	0	0
81	42	0	0
64.359999999999999	42	0	0
81	39	0	0
64.359999999999999	39	0	0
76.359999999999999	1.1699999999999999	0	0
76.359999999999999	7.1699999999999999	0	0
76.359999999999999	1.6699999999999999	0	0
76.359999999999999	6.6699999999999999	0	0
68	1.1699999999999999	0	0
68	7.1699999999999999	0	0
68	1.6699999999999999	0	0
68	6.6699999999999999	0	0
76.359999999999999	9.3499999999999996	0	0
76.359999999999999	15.35	0	0
76.359999999999999	9.8499999999999996	0	0
76.359999999999999	14.85	0	0
68	9.3499999999999996	0	0
68	15.35	0	0
68	9.8499999999999996	0	0
68	14.85	0	0
76.359999999999999	17.530000000000001	0	0
76.359999999999999	23.530000000000001	0	0
76.359999999999999	18.030000000000001	0	0
76.359999999999999	23.030000000000001	0	0
68	17.530000000000001	0	0
68	23.530000000000001	0	0
68	18.030000000000001	0	0
68	23.030000000000001	0	0
76.359999999999999	25.710000000000001	1	0
76.359999999999999	31.710000000000001	0	0
76.359999999999999	26.210000000000001	0	0
76.359999999999999	31.210000000000001	0	0
68	25.710000000000001	0	0
68	31.710000000000001	0	0
68	26.210000000000001	0	0
68	31.210000000000001	0	0
[NumSegments] = 13
0	1	-1	2	0	0
1	2	-1	3	0	0
2	3	-1	1	0	0
3	4	-1	2	0	0
4	5	-1	0	0	0
5	6	-1	0	0	0
6	7	-1	0	0	0
7	8	-1	0	0	0
0	8	-1	1	0	0
8	9	-1	1	0	0
9	4	-1	2	0	0
10	11	-1	0	0	0
12	13	-1	0	0	0
[NumArcSegments] = 34
11	13	180	10	0	0	0	10
12	10	180	10	0	0	0	10
14	15	180	10	0	0	0	10
15	14	180	10	0	0	0	10
16	17	180	10	0	0	0	10
17	16	180	10	0	0	0	10
18	19	180	10	0	0	0	10
19	18	180	10	0	0	0	10
20	21	180	10	0	0	0	10
21	20	180	10	0	0	0	10
22	23	180	10	0	0	0	10
23	22	180	10	0	0	0	10
24	25	180	10	0	0	0	10
25	24	180	10	0	0	0	10
26	27	180	10	0	0	0	10
27	26	180	10	0	0	0	10
28	29	180	10	0	0	0	10
29	28	180	10	0	0	0	10
30	31	180	10	0	0	0	10
31	30	180	10	0	0	0	10
32	33	180	10	0	0	0	10
33	32	180	10	0	0	0	10
34	35	180	10	0	0	0	10
35	34	180	10	0	0	0	10
36	37	180	10	0	0	0	10
37	36	180	10	0	0	0	10
38	39	180	10	0	0	0	10
39	38	180	10	0	0	0	10
40	41	180	10	0	0	0	10
41	40	180	10	0	0	0	10
42	43	180	10	0	0	0	10
43	42	180	10	0	0	0	10
44	45	180	10	0	0	0	10
45	44	180	10	0	0	0	10
[NumHoles] = 0
[NumBlockLabels] = 19
82.5	120	1	-1	0	0	0	1	0
72.680000000000007	40.5	3	-1	0	0	0	1	0
42	16	3	-1	0	0	0	1	0
79.109999999999999	4.1699999999999999	2	-1	1	0	0	1	0
70.75	4.1699999999999999	2	-1	1	0	0	1	0
76.359999999999999	4.1699999999999999	3	-1	0	0	0	1	0
68	4.1699999999999999	3	-1	0	0	0	1	0
79.109999999999999	12.35	2	-1	1	0	0	1	0
70.75	12.35	2	-1	1	0	0	1	0
76.359999999999999	12.35	3	-1	0	0	0	1	0
68	12.35	3	-1	0	0	0	1	0
79.109999999999999	20.530000000000001	2	-1	1	0	0	1	0
70.75	20.530000000000001	2	-1	1	0	0	1	0
76.359999999999999	20.530000000000001	3	-1	0	0	0	1	0
68	20.530000000000001	3	-1	0	0	0	1	0
79.109999999999999	28.710000000000001	2	-1	1	0	0	1	0
70.75	28.710000000000001	2	-1	1	0	0	1	0
76.359999999999999	28.710000000000001	3	-1	0	0	0	1	0
68	28.710000000000001	3	-1	0	0	0	1	0
