[Format]      =  1
[Precision]   =  1e-008
[MinAngle]    =  30
[DoSmartMesh] =  1
[Depth]       =  1
[LengthUnits] =  millimeters
[ProblemType] =  axisymmetric
[Coordinates] =  cartesian
[Comment]     =  "Add comments here."
[PointProps]   = 0
[BdryProps]   = 1
  <BeginBdry>
    <BdryName> = "boundary"
    <BdryType> = 0
    <Vs> = 0
    <qs> = 0
    <c0> = 0
    <c1> = 0
  <EndBdry>
[BlockProps]  = 4
  <BeginBlock>
    <BlockName> = "ZnO"
    <ex> = 800
    <ey> = 800
    <qv> = 0
  <EndBlock>
  <BeginBlock>
    <BlockName> = "Vakuum"
    <ex> = 1
    <ey> = 1
    <qv> = 0
  <EndBlock>
  <BeginBlock>
    <BlockName> = "PEC"
    <ex> = 1000000
    <ey> = 1000000
    <qv> = 0
  <EndBlock>
  <BeginBlock>
    <BlockName> = "Porzellan"
    <ex> = 6
    <ey> = 6
    <qv> = 0
  <EndBlock>
[ConductorProps]  = 2
  <BeginConductor>
    <ConductorName> = "HighVoltage"
    <Vc> = 471000
    <qc> = 0
    <ConductorType> = 1
  <EndConductor>
  <BeginConductor>
    <ConductorName> = "0V"
    <Vc> = 0
    <qc> = 0
    <ConductorType> = 1
  <EndConductor>
[NumPoints] = 48
0	2000	0	0	0
140	2000	0	0	0
140	0	0	0	0
0	2120	0	0	0
115	2120	0	0	0
115	2000	0	0	0
0	3080	0	0	0
30	3080	0	0	0
30	2120	0	0	0
70	3080	0	0	0
70	2120	0	0	0
100	3080	0	0	0
100	2120	0	0	0
0	3200	0	0	0
115	3200	0	0	0
115	3080	0	0	0
0	3320	0	0	0
115	3320	0	0	0
0	4280	0	0	0
30	4280	0	0	0
30	3320	0	0	0
70	4280	0	0	0
70	3320	0	0	0
100	4280	0	0	0
100	3320	0	0	0
0	4400	0	0	0
115	4400	0	0	0
115	4280	0	0	0
0	4520	0	0	0
115	4520	0	0	0
0	5480	0	0	0
30	5480	0	0	0
30	4520	0	0	0
70	5480	0	0	0
70	4520	0	0	0
100	5480	0	0	0
100	4520	0	0	0
0	5600	0	0	0
115	5600	0	0	0
115	5480	0	0	0
0	9000	0	0	0
20	9000	0	0	0
20	5600	0	0	0
565	4800	0	0	0
565	4870	0	0	0
0	12000	0	0	0
4000	12000	0	0	0
4000	0	0	0	0
[NumSegments] = 61
0	5	-1	0	0	0	2
1	2	-1	0	0	0	2
0	3	-1	0	0	0	0
3	8	-1	0	0	0	0
5	1	-1	0	0	0	0
4	5	-1	0	0	0	0
3	6	-1	0	0	0	0
6	7	-1	0	0	0	0
8	10	-1	0	0	0	0
7	8	-1	0	0	0	0
7	9	-1	0	0	0	0
10	12	-1	0	0	0	0
9	10	-1	0	0	0	0
9	11	-1	0	0	0	0
12	4	-1	0	0	0	0
11	12	-1	0	0	0	0
6	13	-1	0	0	0	0
13	14	-1	0	0	0	0
14	15	-1	0	0	0	0
11	15	-1	0	0	0	0
13	16	-1	0	0	0	0
16	20	-1	0	0	0	0
17	14	-1	0	0	0	0
16	18	-1	0	0	0	0
18	19	-1	0	0	0	0
20	22	-1	0	0	0	0
19	20	-1	0	0	0	0
19	21	-1	0	0	0	0
22	24	-1	0	0	0	0
21	22	-1	0	0	0	0
21	23	-1	0	0	0	0
24	17	-1	0	0	0	0
23	24	-1	0	0	0	0
18	25	-1	0	0	0	0
25	26	-1	0	0	0	0
26	27	-1	0	0	0	0
23	27	-1	0	0	0	0
25	28	-1	0	0	0	0
28	32	-1	0	0	0	0
29	26	-1	0	0	0	0
28	30	-1	0	0	0	0
30	31	-1	0	0	0	0
32	34	-1	0	0	0	0
31	32	-1	0	0	0	0
31	33	-1	0	0	0	1
34	36	-1	0	0	0	0
33	34	-1	0	0	0	0
33	35	-1	0	0	0	0
36	29	-1	0	0	0	0
35	36	-1	0	0	0	0
30	37	-1	0	0	0	1
37	42	-1	0	0	0	0
38	39	-1	0	0	0	1
35	39	-1	0	0	0	0
40	41	-1	0	0	0	0
42	38	-1	0	0	0	1
41	42	-1	0	0	0	1
40	45	-1	0	0	0	0
45	46	-1	0	0	0	0
46	47	-1	0	0	0	0
2	47	-1	0	0	0	2
[NumArcSegments] = 2
43	44	180	10	0	0	0	1	10
44	43	180	10	0	0	0	1	10
[NumHoles] = 2
70	1000	0
10	7000	0
[NumBlockLabels] = 17
57	2060	3	-1	0	0
15	2500	1	-1	0	0
50	2500	2	-1	0	0
85	2500	4	-1	0	0
57	3140	3	-1	0	0
57	3260	3	-1	0	0
15	3700	1	-1	0	0
50	3700	2	-1	0	0
85	3700	4	-1	0	0
57	4340	3	-1	0	0
57	4460	3	-1	0	0
15	5000	1	-1	0	0
50	5000	2	-1	0	0
85	5000	4	-1	0	0
57	5540	3	-1	0	0
565	4835	2	-1	0	0
2000	6000	2	-1	0	0
